Version 4.1
SHEET 1 932 688
WIRE 752 64 240 64
WIRE 240 128 240 64
WIRE 176 160 -224 160
WIRE 432 192 368 192
WIRE 480 192 432 192
WIRE 560 192 544 192
WIRE 176 224 48 224
WIRE -304 256 -384 256
WIRE -224 256 -224 160
WIRE 336 256 336 208
WIRE 560 256 560 192
WIRE -384 304 -384 256
WIRE 240 320 240 256
WIRE 240 320 208 320
WIRE 336 320 240 320
WIRE 496 320 496 272
WIRE 496 320 336 320
WIRE 752 320 752 64
WIRE 832 320 752 320
WIRE 336 336 336 320
WIRE 496 384 496 320
WIRE 240 400 240 320
WIRE -224 432 -224 256
WIRE 176 432 -224 432
WIRE 336 448 336 400
WIRE 432 464 368 464
WIRE 480 464 432 464
WIRE 560 464 560 336
WIRE 560 464 544 464
WIRE 48 496 48 224
WIRE 176 496 48 496
WIRE 48 576 48 496
WIRE 240 592 240 528
WIRE 752 592 752 320
WIRE 752 592 240 592
FLAG -384 304 0
FLAG 48 576 0
FLAG 208 320 0
FLAG 912 320 0
SYMBOL lib\\sym\\LM386 240 192 R0
SYMATTR InstName U1
SYMBOL lib\\sym\\LM386 240 464 M180
SYMATTR InstName U2
SYMBOL voltage -208 256 R90
WINDOW 0 -32 56 VBottom 2
WINDOW 3 32 56 VTop 2
WINDOW 123 0 0 Left 0
WINDOW 39 0 0 Left 0
SYMATTR InstName V1
SYMATTR Value SINE(0 1 100)
SYMBOL res 544 240 R0
SYMATTR InstName R1
SYMATTR Value 4
SYMBOL cap 320 256 R0
SYMATTR InstName C1
SYMATTR Value 22µ
SYMATTR SpiceLine V=16
SYMBOL cap 320 336 R0
SYMATTR InstName C2
SYMATTR Value 22µ
SYMATTR SpiceLine V=16
SYMBOL voltage 816 320 R270
WINDOW 0 32 56 VTop 2
WINDOW 3 -32 56 VBottom 2
WINDOW 123 0 0 Left 0
WINDOW 39 0 0 Left 0
SYMATTR InstName V2
SYMATTR Value 9
SYMBOL res 416 176 R0
SYMATTR InstName R2
SYMATTR Value 10
SYMBOL cap 496 256 R90
WINDOW 0 0 32 VBottom 2
WINDOW 3 32 32 VTop 2
SYMATTR InstName C3
SYMATTR Value 0.047µ
SYMBOL res 416 368 R0
SYMATTR InstName R3
SYMATTR Value 10
SYMBOL cap 496 368 R90
WINDOW 0 0 32 VBottom 2
WINDOW 3 32 32 VTop 2
SYMATTR InstName C4
SYMATTR Value 0.047µ
SYMBOL cap 544 448 R90
WINDOW 0 0 32 VBottom 2
WINDOW 3 32 32 VTop 2
SYMATTR InstName C5
SYMATTR Value 470µ
SYMATTR SpiceLine V=16
SYMBOL cap 544 176 R90
WINDOW 0 0 32 VBottom 2
WINDOW 3 32 32 VTop 2
SYMATTR InstName C6
SYMATTR Value 470µ
SYMATTR SpiceLine V=16
TEXT 128 640 Left 2 !.tran 10m
TEXT 128 672 Left 2 !.inc lib/sub/LM386.txt
