Version 4.1
SHEET 1 1400 1156
WIRE 368 -512 96 -512
WIRE 496 -512 368 -512
WIRE 736 -512 576 -512
WIRE -544 -448 -672 -448
WIRE -432 -448 -544 -448
WIRE -272 -448 -368 -448
WIRE -272 -400 -272 -448
WIRE 96 -368 96 -512
WIRE 32 -336 -128 -336
WIRE 480 -304 224 -304
WIRE 624 -304 480 -304
WIRE 800 -304 688 -304
WIRE 480 -288 480 -304
WIRE -544 -272 -544 -448
WIRE -272 -272 -272 -320
WIRE -128 -272 -128 -336
WIRE -128 -272 -272 -272
WIRE 32 -272 -48 -272
WIRE -272 -240 -272 -272
WIRE 192 -224 192 -288
WIRE 480 -192 480 -208
WIRE -544 -128 -544 -192
WIRE -272 -128 -272 -160
WIRE -272 -128 -544 -128
WIRE -48 -128 -48 -272
WIRE -48 -128 -272 -128
WIRE 96 -128 96 -240
WIRE 96 -128 -48 -128
WIRE 192 -128 192 -160
WIRE 192 -128 96 -128
WIRE 480 -128 192 -128
WIRE 96 -96 96 -128
WIRE 800 -64 800 -304
WIRE 192 64 192 32
WIRE 192 64 96 64
WIRE 480 64 192 64
WIRE 192 96 192 64
WIRE 480 144 480 128
WIRE 96 176 96 64
WIRE -128 208 -128 -272
WIRE 32 208 -128 208
WIRE 192 224 192 160
WIRE 480 240 480 224
WIRE 480 240 224 240
WIRE 624 240 480 240
WIRE 800 240 800 16
WIRE 800 240 688 240
WIRE -784 256 -880 256
WIRE -672 256 -672 -448
WIRE -672 256 -704 256
WIRE 32 272 -128 272
WIRE 800 288 800 240
WIRE 96 352 96 304
WIRE 368 352 368 -512
WIRE 368 352 96 352
WIRE -880 496 -880 256
WIRE -768 496 -880 496
WIRE -544 496 -688 496
WIRE 192 496 192 464
WIRE 192 496 96 496
WIRE 480 496 192 496
WIRE 192 544 192 496
WIRE -544 560 -544 496
WIRE -448 560 -544 560
WIRE -336 560 -384 560
WIRE 480 576 480 560
WIRE -336 592 -336 560
WIRE 96 608 96 496
WIRE 192 608 192 592
WIRE -128 640 -128 272
WIRE -128 640 -208 640
WIRE 32 640 -128 640
WIRE 192 656 192 608
WIRE 480 672 480 656
WIRE 480 672 224 672
WIRE 608 672 480 672
WIRE 800 672 800 368
WIRE 800 672 672 672
WIRE 32 704 -128 704
WIRE -544 720 -544 560
WIRE -336 720 -336 672
WIRE -208 720 -208 640
WIRE -208 720 -336 720
WIRE -336 752 -336 720
WIRE 96 848 96 736
WIRE 368 848 368 352
WIRE 368 848 96 848
WIRE -880 1072 -880 496
WIRE -544 1072 -544 800
WIRE -544 1072 -880 1072
WIRE -336 1072 -336 832
WIRE -336 1072 -544 1072
WIRE -128 1072 -128 704
WIRE -128 1072 -336 1072
WIRE -128 1104 -128 1072
FLAG 96 -96 0
FLAG 192 32 0
FLAG 192 464 0
FLAG -128 1104 0
FLAG 736 -512 0
SYMBOL lib\\sym\\LM386 96 -304 R0
SYMATTR InstName U1
SYMBOL voltage -688 256 R90
WINDOW 0 -32 56 VBottom 2
WINDOW 3 32 56 VTop 2
WINDOW 123 0 0 Left 0
WINDOW 39 0 0 Left 0
SYMATTR InstName V1
SYMATTR Value SINE(0 0.015 20k)
SYMBOL voltage -672 496 R90
WINDOW 0 -32 56 VBottom 2
WINDOW 3 32 56 VTop 2
WINDOW 123 0 0 Left 0
WINDOW 39 0 0 Left 0
SYMATTR InstName V2
SYMATTR Value SINE(0 0.015 20k)
SYMBOL res -560 -288 R0
SYMATTR InstName R1
SYMATTR Value 47k
SYMBOL cap -368 -464 R90
WINDOW 0 0 32 VBottom 2
WINDOW 3 32 32 VTop 2
SYMATTR InstName C1
SYMATTR Value 4.7µ
SYMATTR SpiceLine V=50
SYMBOL lib\\sym\\LM386 96 240 M180
SYMATTR InstName U2
SYMBOL lib\\sym\\LM386 96 672 M180
SYMATTR InstName U3
SYMBOL res -560 704 R0
SYMATTR InstName R3
SYMATTR Value 47k
SYMBOL cap -384 544 R90
WINDOW 0 0 32 VBottom 2
WINDOW 3 32 32 VTop 2
SYMATTR InstName C8
SYMATTR Value 4.7µ
SYMATTR SpiceLine V=50
SYMBOL cap 176 -224 R0
SYMATTR InstName C2
SYMATTR Value 22µ
SYMATTR SpiceLine V=16
SYMBOL cap 176 544 R0
SYMATTR InstName C9
SYMATTR Value 22µ
SYMATTR SpiceLine V=16
SYMBOL cap 176 96 R0
SYMATTR InstName C5
SYMATTR Value 22µ
SYMATTR SpiceLine V=16
SYMBOL res 464 -304 R0
SYMATTR InstName R2
SYMATTR Value 10
SYMBOL cap 464 -192 R0
SYMATTR InstName C3
SYMATTR Value 0.047µ
SYMBOL res 464 128 R0
SYMATTR InstName R5
SYMATTR Value 10
SYMBOL cap 464 64 R0
SYMATTR InstName C6
SYMATTR Value 0.047µ
SYMBOL res 464 560 R0
SYMATTR InstName R4
SYMATTR Value 10
SYMBOL cap 464 496 R0
SYMATTR InstName C10
SYMATTR Value 0.047µ
SYMBOL cap 672 656 R90
WINDOW 0 0 32 VBottom 2
WINDOW 3 32 32 VTop 2
SYMATTR InstName C11
SYMATTR Value 470µ
SYMATTR SpiceLine V=10
SYMBOL cap 688 -320 R90
WINDOW 0 0 32 VBottom 2
WINDOW 3 32 32 VTop 2
SYMATTR InstName C4
SYMATTR Value 470µ
SYMATTR SpiceLine V=16
SYMBOL cap 688 224 R90
WINDOW 0 0 32 VBottom 2
WINDOW 3 32 32 VTop 2
SYMATTR InstName C7
SYMATTR Value 470µ
SYMATTR SpiceLine V=16
SYMBOL res -288 -416 R0
SYMATTR InstName R7
SYMATTR Value 10k
SYMBOL res -288 -256 R0
SYMATTR InstName R8
SYMATTR Value 0
SYMBOL res -352 576 R0
SYMATTR InstName R9
SYMATTR Value 10k
SYMBOL res -352 736 R0
SYMATTR InstName R10
SYMATTR Value 0
SYMBOL res 784 -80 R0
SYMATTR InstName R11
SYMATTR Value 4
SYMBOL res 784 272 R0
SYMATTR InstName R12
SYMATTR Value 4
SYMBOL voltage 480 -512 R270
WINDOW 0 32 56 VTop 2
WINDOW 3 -32 56 VBottom 2
WINDOW 123 0 0 Left 0
WINDOW 39 0 0 Left 0
SYMATTR InstName V3
SYMATTR Value 9
TEXT 568 72 Left 2 !.tran 500u
TEXT 56 1064 Left 2 !.inc lib/sub/LM386.txt
