Version 4.1
SHEET 1 880 680
WIRE 304 48 256 48
WIRE 448 48 384 48
WIRE 256 144 256 48
WIRE 256 144 240 144
WIRE 304 144 256 144
WIRE 448 160 448 48
WIRE 448 160 368 160
WIRE 592 160 448 160
WIRE 0 176 -48 176
WIRE 112 176 80 176
WIRE 304 176 112 176
WIRE 592 240 592 160
WIRE 304 336 256 336
WIRE 480 336 384 336
WIRE 112 416 112 176
WIRE 160 416 112 416
WIRE 256 416 256 336
WIRE 256 416 240 416
WIRE 304 416 256 416
WIRE 480 432 480 336
WIRE 480 432 368 432
WIRE 592 432 592 320
WIRE 592 432 480 432
WIRE 304 448 256 448
WIRE 256 512 256 448
FLAG 160 144 0
FLAG 256 512 0
FLAG -48 176 0
SYMBOL voltage 96 176 R90
WINDOW 0 -32 56 VBottom 2
WINDOW 3 32 56 VTop 2
WINDOW 123 0 0 Left 0
WINDOW 39 0 0 Left 0
SYMATTR InstName V1
SYMATTR Value SINE(0.5 1 50 0 0 0)
SYMBOL OpAmps\\OP07 336 96 R0
SYMATTR InstName U1
SYMBOL res 256 128 R90
WINDOW 0 0 56 VBottom 2
WINDOW 3 32 56 VTop 2
SYMATTR InstName R1
SYMATTR Value 4k
SYMBOL res 400 32 R90
WINDOW 0 0 56 VBottom 2
WINDOW 3 32 56 VTop 2
SYMATTR InstName R2
SYMATTR Value 377.12k
SYMBOL OpAmps\\OP07 336 368 R0
SYMATTR InstName U2
SYMBOL res 400 320 R90
WINDOW 0 0 56 VBottom 2
WINDOW 3 32 56 VTop 2
SYMATTR InstName R3
SYMATTR Value 186.56k
SYMBOL res 576 224 R0
SYMATTR InstName R4
SYMATTR Value 4
SYMBOL res 256 400 R90
WINDOW 0 0 56 VBottom 2
WINDOW 3 32 56 VTop 2
SYMATTR InstName R5
SYMATTR Value 2k
TEXT -40 408 Left 2 !.tran 5m
